.. _`apdx:thermo_psivar`:


THERMO
======

.. hlist::
   :columns: 1

   * :psivar:`CURRENT ENERGY <CURRENTENERGY>`

   * :psivar:`ENTHALPY <ENTHALPY>`

   * :psivar:`ENTHALPY CORRECTION <ENTHALPYCORRECTION>`

   * :psivar:`GIBBS FREE ENERGY <GIBBSFREEENERGY>`

   * :psivar:`GIBBS FREE ENERGY CORRECTION <GIBBSFREEENERGYCORRECTION>`

   * :psivar:`INTERNAL ENERGY <INTERNALENERGY>`

   * :psivar:`INTERNAL ENERGY CORRECTION <INTERNALENERGYCORRECTION>`

   * :psivar:`ZERO K ENTHALPHY <ZEROKENTHALPHY>`

   * :psivar:`ZPVE <ZPVE>`


