.. _`apdx:thermo`:


THERMO
======

.. toctree::
   :hidden:
   :glob:

   thermo__*


General
_______

.. include:: thermo__p.rst
.. include:: thermo__t.rst

