.. _`apdx:thermo_psivar`:


THERMO
======

.. hlist::
   :columns: 1

   * :psivar:`CURRENT ENERGY <CURRENTENERGY>`

   * :psivar:`GIBBS FREE ENERGY <GIBBSFREEENERGY>`


